egret/models/tests/pglib_opf_case3_lmbd_acopf_0960.json
{"elements": {"bus": {"1": {"matpower_bustype": "ref", "area": 1.0, "vm": 1.0999999621449004, "va": 0.0, "base_kv": 240.0, "zone": 1.0, "v_min": 0.9, "v_max": 1.1, "lmp": 35.08384106377935, "qlmp": 5.980593266406826e-11, "pl": 105.60000000000001, "ql": 38.4}, "2": {"matpower_bustype": "PV", "area": 1.0, "vm": 0.9261705374946394, "va": 0.1525929929987218, "base_kv": 240.0, "zone": 1.0, "v_min": 0.9, "v_max": 1.1, "lmp": 29.848823573584518, "qlmp": -1.1412053758137792e-11, "pl": 105.60000000000001, "ql": 38.4}, "3": {"matpower_bustype": "PV", "area": 1.0, "vm": 0.9, "va": -0.2754651922210728, "base_kv": 240.0, "zone": 1.0, "v_min": 0.9, "v_max": 1.1, "lmp": 40.83659179456262, "qlmp": -9.492630582787973e-12, "pl": 91.2, "ql": 48.0}}, "load": {"load_1": {"in_service": true, "p_load": 105.60000000000001, "q_load": 38.4, "bus": "1"}, "load_2": {"in_service": true, "p_load": 105.60000000000001, "q_load": 38.4, "bus": "2"}, "load_3": {"in_service": true, "p_load": 91.2, "q_load": 48.0, "bus": "3"}}, "generator": {"1": {"bus": "1", "pg": 136.7447321254544, "qg": 52.88724416158354, "vg": 1.0, "mbase": 100.0, "in_service": true, "p_min": 0.0, "p_max": 2000.0, "q_min": -1000.0, "q_max": 1000.0, "generator_type": "thermal", "p_cost": {"data_type": "cost_curve", "cost_curve_type": "polynomial", "values": {"0": 0.0, "1": 5.0, "2": 0.11}}, "startup_cost": 0.0, "shutdown_cost": 0.0}, "2": {"bus": "2", "pg": 168.52249162719042, "qg": -10.119113691765106, "vg": 1.0, "mbase": 100.0, "in_service": true, "p_min": 0.0, "p_max": 2000.0, "q_min": -1000.0, "q_max": 1000.0, "generator_type": "thermal", "p_cost": {"data_type": "cost_curve", "cost_curve_type": "polynomial", "values": {"0": 0.0, "1": 1.2, "2": 0.08500000000000002}}, "startup_cost": 0.0, "shutdown_cost": 0.0}, "3": {"bus": "3", "pg": 0.0, "qg": -8.41741893639191, "vg": 1.0, "mbase": 100.0, "in_service": true, "p_min": 0.0, "p_max": 0.0, "q_min": -1000.0, "q_max": 1000.0, "generator_type": "thermal", "p_cost": {"data_type": "cost_curve", "cost_curve_type": "polynomial", "values": {"0": 0.0, "1": 0.0, "2": 0.0}}, "startup_cost": 0.0, "shutdown_cost": 0.0}}, "branch": {"1": {"from_bus": "1", "to_bus": "3", "resistance": 0.065, "reactance": 0.62, "charging_susceptance": 0.45, "branch_type": "line", "rating_long_term": 9000.0, "rating_short_term": 9000.0, "rating_emergency": 9000.0, "in_service": true, "angle_diff_min": -30.0, "angle_diff_max": 30.0, "pf": 47.26313592792136, "qf": 9.32389465478618, "pt": -45.34556833499724, "qt": -36.483247728880755, "pfl": 1.9175675929241243, "qfl": -27.15935307409458, "pf_dual": 3508.3841063780615, "qf_dual": 6.005503104293223e-09}, "2": {"from_bus": "3", "to_bus": "2", "resistance": 0.025, "reactance": 0.75, "charging_susceptance": 0.7, "branch_type": "line", "rating_long_term": 50.0, "rating_short_term": 50.0, "rating_emergency": 50.0, "in_service": true, "angle_diff_min": -30.0, "angle_diff_max": 30.0, "pf": -45.85443166500276, "qf": -19.93417120751115, "pt": 46.525251142570085, "qt": -18.31395922684433, "pfl": 0.6708194775673249, "qfl": -38.248130434355474, "pf_dual": 3737.767926962109, "qf_dual": -150.3683501399299}, "3": {"from_bus": "1", "to_bus": "2", "resistance": 0.042, "reactance": 0.9, "charging_susceptance": 0.3, "branch_type": "line", "rating_long_term": 9000.0, "rating_short_term": 9000.0, "rating_emergency": 9000.0, "in_service": true, "angle_diff_min": -30.0, "angle_diff_max": 30.0, "pf": -16.118403802466975, "qf": 5.1633495067973625, "pt": 16.397240484620337, "qt": -30.20515446492078, "pfl": 0.27883668215336055, "qfl": -25.041804958123414, "pf_dual": 3508.3841063778923, "qf_dual": 5.994387552030903e-09}}}, "system": {"model_name": "pglib_opf_case3_lmbd", "mpc_version": "'2'", "baseMVA": 100.0, "reference_bus": "1", "reference_bus_angle": 0.0, "total_cost": 5356.839610286851, "ploss": 2.8672237526448097, "qloss": -90.44928846657346, "mult": 0.96}, "results": {"time": 0.021263837814331055, "#_cons": 36, "#_vars": 23, "termination": "optimal"}}